<?xml version="1.0" encoding="UTF-8"?>

<!-- generated on Thứ sáu, 19 Tháng 4 Năm 2024 17:25:33 +07 by Eclipse SUMO netedit Version 1.8.0
<configuration xmlns:xsi="http://www.w3.org/2001/XMLSchema-instance" xsi:noNamespaceSchemaLocation="http://sumo.dlr.de/xsd/netconvertConfiguration.xsd">

    <input>
        <sumo-net-file value="/home/vqanh77/map_week6/map2/map2.net.xml"/>
    </input>

    <output>
        <output-file value="/home/vqanh77/map_week6/map2/map2.net.xml"/>
    </output>

    <processing>
        <geometry.min-radius.fix.railways value="false"/>
        <geometry.max-grade.fix value="false"/>
        <offset.disable-normalization value="true"/>
        <lefthand value="false"/>
    </processing>

    <junctions>
        <no-internal-links value="false"/>
        <no-turnarounds value="true"/>
        <junctions.corner-detail value="5"/>
        <junctions.limit-turn-speed value="5.5"/>
        <rectangular-lane-cut value="false"/>
    </junctions>

    <pedestrian>
        <walkingareas value="false"/>
    </pedestrian>

    <report>
        <aggregate-warnings value="5"/>
    </report>

</configuration>
-->

<net version="1.6" junctionCornerDetail="5" limitTurnSpeed="5.50" xmlns:xsi="http://www.w3.org/2001/XMLSchema-instance" xsi:noNamespaceSchemaLocation="http://sumo.dlr.de/xsd/net_file.xsd">

    <location netOffset="0.00,0.00" convBoundary="200.00,-1200.00,3800.00,600.00" origBoundary="-10000000000.00,-10000000000.00,10000000000.00,10000000000.00" projParameter="!"/>

    <edge id=":gneJ100_0" function="internal">
        <lane id=":gneJ100_0_0" index="0" disallow="pedestrian" speed="13.89" length="0.10" shape="900.00,-288.80 900.00,-288.80"/>
        <lane id=":gneJ100_0_1" index="1" disallow="pedestrian" speed="13.89" length="0.10" shape="900.00,-292.00 900.00,-292.00"/>
        <lane id=":gneJ100_0_2" index="2" disallow="pedestrian" speed="13.89" length="0.10" shape="900.00,-295.20 900.00,-295.20"/>
        <lane id=":gneJ100_0_3" index="3" disallow="pedestrian" speed="13.89" length="0.10" shape="900.00,-298.40 900.00,-298.40"/>
    </edge>
    <edge id=":gneJ100_4" function="internal">
        <lane id=":gneJ100_4_0" index="0" disallow="pedestrian" speed="13.89" length="0.10" shape="900.00,-311.20 900.00,-311.20"/>
        <lane id=":gneJ100_4_1" index="1" disallow="pedestrian" speed="13.89" length="0.10" shape="900.00,-308.00 900.00,-308.00"/>
        <lane id=":gneJ100_4_2" index="2" disallow="pedestrian" speed="13.89" length="0.10" shape="900.00,-304.80 900.00,-304.80"/>
        <lane id=":gneJ100_4_3" index="3" disallow="pedestrian" speed="13.89" length="0.10" shape="900.00,-301.60 900.00,-301.60"/>
    </edge>
    <edge id=":gneJ100_w0" function="walkingarea">
        <lane id=":gneJ100_w0_0" index="0" allow="pedestrian" speed="1.00" length="0.10" width="2.00" shape="900.00,-287.20 900.00,-285.20 900.00,-285.20 900.00,-287.20"/>
    </edge>
    <edge id=":gneJ100_w1" function="walkingarea">
        <lane id=":gneJ100_w1_0" index="0" allow="pedestrian" speed="1.00" length="0.10" width="2.00" shape="900.00,-312.80 900.00,-314.80 900.00,-314.80 900.00,-312.80"/>
    </edge>
    <edge id=":gneJ101_0" function="internal">
        <lane id=":gneJ101_0_0" index="0" disallow="pedestrian" speed="13.89" length="0.10" shape="1000.00,11.20 1000.00,11.20"/>
        <lane id=":gneJ101_0_1" index="1" disallow="pedestrian" speed="13.89" length="0.10" shape="1000.00,8.00 1000.00,8.00"/>
        <lane id=":gneJ101_0_2" index="2" disallow="pedestrian" speed="13.89" length="0.10" shape="1000.00,4.80 1000.00,4.80"/>
        <lane id=":gneJ101_0_3" index="3" disallow="pedestrian" speed="13.89" length="0.10" shape="1000.00,1.60 1000.00,1.60"/>
    </edge>
    <edge id=":gneJ101_4" function="internal">
        <lane id=":gneJ101_4_0" index="0" disallow="pedestrian" speed="13.89" length="0.10" shape="1000.00,-11.20 1000.00,-11.20"/>
        <lane id=":gneJ101_4_1" index="1" disallow="pedestrian" speed="13.89" length="0.10" shape="1000.00,-8.00 1000.00,-8.00"/>
        <lane id=":gneJ101_4_2" index="2" disallow="pedestrian" speed="13.89" length="0.10" shape="1000.00,-4.80 1000.00,-4.80"/>
        <lane id=":gneJ101_4_3" index="3" disallow="pedestrian" speed="13.89" length="0.10" shape="1000.00,-1.60 1000.00,-1.60"/>
    </edge>
    <edge id=":gneJ101_w0" function="walkingarea">
        <lane id=":gneJ101_w0_0" index="0" allow="pedestrian" speed="1.00" length="0.10" width="2.00" shape="1000.00,12.80 1000.00,14.80 1000.00,14.80 1000.00,12.80"/>
    </edge>
    <edge id=":gneJ101_w1" function="walkingarea">
        <lane id=":gneJ101_w1_0" index="0" allow="pedestrian" speed="1.00" length="0.10" width="2.00" shape="1000.00,-12.80 1000.00,-14.80 1000.00,-14.80 1000.00,-12.80"/>
    </edge>
    <edge id=":gneJ102_0" function="internal">
        <lane id=":gneJ102_0_0" index="0" disallow="pedestrian" speed="6.51" length="4.75" shape="1088.80,16.80 1088.45,14.35 1087.40,12.60 1087.20,12.48"/>
    </edge>
    <edge id=":gneJ102_1" function="internal">
        <lane id=":gneJ102_1_0" index="0" disallow="pedestrian" speed="13.89" length="33.60" shape="1088.80,16.80 1088.80,-16.80"/>
        <lane id=":gneJ102_1_1" index="1" disallow="pedestrian" speed="13.89" length="33.60" shape="1092.00,16.80 1092.00,-16.80"/>
        <lane id=":gneJ102_1_2" index="2" disallow="pedestrian" speed="13.89" length="33.60" shape="1095.20,16.80 1095.20,-16.80"/>
        <lane id=":gneJ102_1_3" index="3" disallow="pedestrian" speed="13.89" length="33.60" shape="1098.40,16.80 1098.40,-16.80"/>
    </edge>
    <edge id=":gneJ102_5" function="internal">
        <lane id=":gneJ102_5_0" index="0" disallow="pedestrian" speed="11.36" length="9.01" shape="1098.40,16.80 1099.55,8.75 1100.00,8.00"/>
    </edge>
    <edge id=":gneJ102_28" function="internal">
        <lane id=":gneJ102_28_0" index="0" disallow="pedestrian" speed="6.51" length="4.28" shape="1087.20,12.48 1085.65,11.55 1083.20,11.20"/>
    </edge>
    <edge id=":gneJ102_29" function="internal">
        <lane id=":gneJ102_29_0" index="0" disallow="pedestrian" speed="11.36" length="20.67" shape="1100.00,8.00 1103.00,3.00 1108.75,-0.45 1116.80,-1.60"/>
    </edge>
    <edge id=":gneJ102_6" function="internal">
        <lane id=":gneJ102_6_0" index="0" disallow="pedestrian" speed="6.51" length="4.75" shape="1116.80,11.20 1114.35,11.55 1112.60,12.60 1112.48,12.80"/>
    </edge>
    <edge id=":gneJ102_7" function="internal">
        <lane id=":gneJ102_7_0" index="0" disallow="pedestrian" speed="8.00" length="10.13" shape="1116.80,8.00 1112.95,8.55 1110.20,10.20 1108.64,12.80"/>
    </edge>
    <edge id=":gneJ102_8" function="internal">
        <lane id=":gneJ102_8_0" index="0" disallow="pedestrian" speed="13.89" length="33.70" shape="1116.80,8.00 1106.80,8.50 1100.00,9.60 1093.20,10.70 1083.20,11.20"/>
        <lane id=":gneJ102_8_1" index="1" disallow="pedestrian" speed="13.89" length="33.70" shape="1116.80,8.00 1083.20,8.00"/>
        <lane id=":gneJ102_8_2" index="2" disallow="pedestrian" speed="13.89" length="33.70" shape="1116.80,4.80 1083.20,4.80"/>
        <lane id=":gneJ102_8_3" index="3" disallow="pedestrian" speed="13.89" length="33.70" shape="1116.80,4.80 1106.80,4.30 1100.00,3.20 1093.20,2.10 1083.20,1.60"/>
    </edge>
    <edge id=":gneJ102_12" function="internal">
        <lane id=":gneJ102_12_0" index="0" disallow="pedestrian" speed="12.28" length="18.56" shape="1116.80,4.80 1107.35,3.45 1100.60,-0.60 1100.01,-1.58"/>
    </edge>
    <edge id=":gneJ102_13" function="internal">
        <lane id=":gneJ102_13_0" index="0" disallow="pedestrian" speed="11.36" length="9.94" shape="1116.80,1.60 1108.75,0.45 1107.20,-0.48"/>
    </edge>
    <edge id=":gneJ102_30" function="internal">
        <lane id=":gneJ102_30_0" index="0" disallow="pedestrian" speed="6.51" length="4.28" shape="1112.48,12.80 1111.55,14.35 1111.20,16.80"/>
    </edge>
    <edge id=":gneJ102_31" function="internal">
        <lane id=":gneJ102_31_0" index="0" disallow="pedestrian" speed="8.00" length="4.06" shape="1108.64,12.80 1108.55,12.95 1108.00,16.80"/>
    </edge>
    <edge id=":gneJ102_32" function="internal">
        <lane id=":gneJ102_32_0" index="0" disallow="pedestrian" speed="12.28" length="16.28" shape="1100.01,-1.58 1096.55,-7.35 1095.20,-16.80"/>
    </edge>
    <edge id=":gneJ102_33" function="internal">
        <lane id=":gneJ102_33_0" index="0" disallow="pedestrian" speed="11.36" length="19.74" shape="1107.20,-0.48 1103.00,-3.00 1099.55,-8.75 1098.40,-16.80"/>
    </edge>
    <edge id=":gneJ102_14" function="internal">
        <lane id=":gneJ102_14_0" index="0" disallow="pedestrian" speed="6.51" length="4.75" shape="1111.20,-16.80 1111.55,-14.35 1112.60,-12.60 1112.80,-12.48"/>
    </edge>
    <edge id=":gneJ102_15" function="internal">
        <lane id=":gneJ102_15_0" index="0" disallow="pedestrian" speed="13.89" length="33.60" shape="1111.20,-16.80 1111.20,16.80"/>
        <lane id=":gneJ102_15_1" index="1" disallow="pedestrian" speed="13.89" length="33.60" shape="1108.00,-16.80 1108.00,16.80"/>
        <lane id=":gneJ102_15_2" index="2" disallow="pedestrian" speed="13.89" length="33.60" shape="1104.80,-16.80 1104.80,16.80"/>
        <lane id=":gneJ102_15_3" index="3" disallow="pedestrian" speed="13.89" length="33.60" shape="1101.60,-16.80 1101.60,16.80"/>
    </edge>
    <edge id=":gneJ102_19" function="internal">
        <lane id=":gneJ102_19_0" index="0" disallow="pedestrian" speed="11.36" length="9.01" shape="1101.60,-16.80 1100.45,-8.75 1100.00,-8.00"/>
    </edge>
    <edge id=":gneJ102_34" function="internal">
        <lane id=":gneJ102_34_0" index="0" disallow="pedestrian" speed="6.51" length="4.28" shape="1112.80,-12.48 1114.35,-11.55 1116.80,-11.20"/>
    </edge>
    <edge id=":gneJ102_35" function="internal">
        <lane id=":gneJ102_35_0" index="0" disallow="pedestrian" speed="11.36" length="20.67" shape="1100.00,-8.00 1097.00,-3.00 1091.25,0.45 1083.20,1.60"/>
    </edge>
    <edge id=":gneJ102_20" function="internal">
        <lane id=":gneJ102_20_0" index="0" disallow="pedestrian" speed="6.51" length="4.75" shape="1083.20,-11.20 1085.65,-11.55 1087.40,-12.60 1087.52,-12.80"/>
    </edge>
    <edge id=":gneJ102_21" function="internal">
        <lane id=":gneJ102_21_0" index="0" disallow="pedestrian" speed="8.00" length="10.13" shape="1083.20,-8.00 1087.05,-8.55 1089.80,-10.20 1091.36,-12.80"/>
    </edge>
    <edge id=":gneJ102_22" function="internal">
        <lane id=":gneJ102_22_0" index="0" disallow="pedestrian" speed="13.89" length="33.70" shape="1083.20,-8.00 1093.20,-8.50 1100.00,-9.60 1106.80,-10.70 1116.80,-11.20"/>
        <lane id=":gneJ102_22_1" index="1" disallow="pedestrian" speed="13.89" length="33.70" shape="1083.20,-8.00 1116.80,-8.00"/>
        <lane id=":gneJ102_22_2" index="2" disallow="pedestrian" speed="13.89" length="33.70" shape="1083.20,-4.80 1116.80,-4.80"/>
        <lane id=":gneJ102_22_3" index="3" disallow="pedestrian" speed="13.89" length="33.70" shape="1083.20,-4.80 1093.20,-4.30 1100.00,-3.20 1106.80,-2.10 1116.80,-1.60"/>
    </edge>
    <edge id=":gneJ102_26" function="internal">
        <lane id=":gneJ102_26_0" index="0" disallow="pedestrian" speed="12.28" length="18.56" shape="1083.20,-4.80 1092.65,-3.45 1099.40,0.60 1099.99,1.58"/>
    </edge>
    <edge id=":gneJ102_27" function="internal">
        <lane id=":gneJ102_27_0" index="0" disallow="pedestrian" speed="11.36" length="9.94" shape="1083.20,-1.60 1091.25,-0.45 1092.80,0.48"/>
    </edge>
    <edge id=":gneJ102_36" function="internal">
        <lane id=":gneJ102_36_0" index="0" disallow="pedestrian" speed="6.51" length="4.28" shape="1087.52,-12.80 1088.45,-14.35 1088.80,-16.80"/>
    </edge>
    <edge id=":gneJ102_37" function="internal">
        <lane id=":gneJ102_37_0" index="0" disallow="pedestrian" speed="8.00" length="4.06" shape="1091.36,-12.80 1091.45,-12.95 1092.00,-16.80"/>
    </edge>
    <edge id=":gneJ102_38" function="internal">
        <lane id=":gneJ102_38_0" index="0" disallow="pedestrian" speed="12.28" length="16.28" shape="1099.99,1.58 1103.45,7.35 1104.80,16.80"/>
    </edge>
    <edge id=":gneJ102_39" function="internal">
        <lane id=":gneJ102_39_0" index="0" disallow="pedestrian" speed="11.36" length="19.74" shape="1092.80,0.48 1097.00,3.00 1100.45,8.75 1101.60,16.80"/>
    </edge>
    <edge id=":gneJ102_c0" function="crossing" crossingEdges="gneE208 gneE209">
        <lane id=":gneJ102_c0_0" index="0" allow="pedestrian" speed="1.00" length="25.60" width="4.00" shape="1112.80,14.80 1087.20,14.80"/>
    </edge>
    <edge id=":gneJ102_c1" function="crossing" crossingEdges="gneE214 gneE215">
        <lane id=":gneJ102_c1_0" index="0" allow="pedestrian" speed="1.00" length="25.60" width="4.00" shape="1114.80,-12.80 1114.80,12.80"/>
    </edge>
    <edge id=":gneJ102_c2" function="crossing" crossingEdges="gneE216 gneE217">
        <lane id=":gneJ102_c2_0" index="0" allow="pedestrian" speed="1.00" length="25.60" width="4.00" shape="1087.20,-14.80 1112.80,-14.80"/>
    </edge>
    <edge id=":gneJ102_c3" function="crossing" crossingEdges="gneE207 gneE206">
        <lane id=":gneJ102_c3_0" index="0" allow="pedestrian" speed="1.00" length="25.60" width="4.00" shape="1085.20,12.80 1085.20,-12.80"/>
    </edge>
    <edge id=":gneJ102_w0" function="walkingarea">
        <lane id=":gneJ102_w0_0" index="0" allow="pedestrian" speed="1.00" length="3.30" width="4.00" shape="1083.20,12.80 1083.20,14.80 1085.20,16.80 1087.20,16.80 1087.09,15.58 1086.76,14.58 1086.20,13.80 1085.42,13.24 1084.42,12.91"/>
    </edge>
    <edge id=":gneJ102_w1" function="walkingarea">
        <lane id=":gneJ102_w1_0" index="0" allow="pedestrian" speed="1.00" length="3.30" width="4.00" shape="1112.80,16.80 1114.80,16.80 1116.80,14.80 1116.80,12.80 1115.58,12.91 1114.58,13.24 1113.80,13.80 1113.24,14.58 1112.91,15.58"/>
    </edge>
    <edge id=":gneJ102_w2" function="walkingarea">
        <lane id=":gneJ102_w2_0" index="0" allow="pedestrian" speed="1.00" length="3.30" width="4.00" shape="1116.80,-12.80 1116.80,-14.80 1114.80,-16.80 1112.80,-16.80 1112.91,-15.58 1113.24,-14.58 1113.80,-13.80 1114.58,-13.24 1115.58,-12.91"/>
    </edge>
    <edge id=":gneJ102_w3" function="walkingarea">
        <lane id=":gneJ102_w3_0" index="0" allow="pedestrian" speed="1.00" length="3.30" width="4.00" shape="1087.20,-16.80 1085.20,-16.80 1083.20,-14.80 1083.20,-12.80 1084.42,-12.91 1085.42,-13.24 1086.20,-13.80 1086.76,-14.58 1087.09,-15.58"/>
    </edge>
    <edge id=":gneJ103_0" function="internal">
        <lane id=":gneJ103_0_0" index="0" disallow="pedestrian" speed="13.89" length="0.10" shape="1088.80,100.00 1088.80,100.00"/>
        <lane id=":gneJ103_0_1" index="1" disallow="pedestrian" speed="13.89" length="0.10" shape="1092.00,100.00 1092.00,100.00"/>
        <lane id=":gneJ103_0_2" index="2" disallow="pedestrian" speed="13.89" length="0.10" shape="1095.20,100.00 1095.20,100.00"/>
        <lane id=":gneJ103_0_3" index="3" disallow="pedestrian" speed="13.89" length="0.10" shape="1098.40,100.00 1098.40,100.00"/>
    </edge>
    <edge id=":gneJ103_4" function="internal">
        <lane id=":gneJ103_4_0" index="0" disallow="pedestrian" speed="13.89" length="0.10" shape="1111.20,100.00 1111.20,100.00"/>
        <lane id=":gneJ103_4_1" index="1" disallow="pedestrian" speed="13.89" length="0.10" shape="1108.00,100.00 1108.00,100.00"/>
        <lane id=":gneJ103_4_2" index="2" disallow="pedestrian" speed="13.89" length="0.10" shape="1104.80,100.00 1104.80,100.00"/>
        <lane id=":gneJ103_4_3" index="3" disallow="pedestrian" speed="13.89" length="0.10" shape="1101.60,100.00 1101.60,100.00"/>
    </edge>
    <edge id=":gneJ103_w0" function="walkingarea">
        <lane id=":gneJ103_w0_0" index="0" allow="pedestrian" speed="1.00" length="0.10" width="2.00" shape="1087.20,100.00 1085.20,100.00 1085.20,100.00 1087.20,100.00"/>
    </edge>
    <edge id=":gneJ103_w1" function="walkingarea">
        <lane id=":gneJ103_w1_0" index="0" allow="pedestrian" speed="1.00" length="0.10" width="2.00" shape="1112.80,100.00 1114.80,100.00 1114.80,100.00 1112.80,100.00"/>
    </edge>
    <edge id=":gneJ104_0" function="internal">
        <lane id=":gneJ104_0_0" index="0" disallow="pedestrian" speed="13.89" length="0.10" shape="1088.80,200.00 1088.80,200.00"/>
        <lane id=":gneJ104_0_1" index="1" disallow="pedestrian" speed="13.89" length="0.10" shape="1092.00,200.00 1092.00,200.00"/>
        <lane id=":gneJ104_0_2" index="2" disallow="pedestrian" speed="13.89" length="0.10" shape="1095.20,200.00 1095.20,200.00"/>
        <lane id=":gneJ104_0_3" index="3" disallow="pedestrian" speed="13.89" length="0.10" shape="1098.40,200.00 1098.40,200.00"/>
    </edge>
    <edge id=":gneJ104_4" function="internal">
        <lane id=":gneJ104_4_0" index="0" disallow="pedestrian" speed="13.89" length="0.10" shape="1111.20,200.00 1111.20,200.00"/>
        <lane id=":gneJ104_4_1" index="1" disallow="pedestrian" speed="13.89" length="0.10" shape="1108.00,200.00 1108.00,200.00"/>
        <lane id=":gneJ104_4_2" index="2" disallow="pedestrian" speed="13.89" length="0.10" shape="1104.80,200.00 1104.80,200.00"/>
        <lane id=":gneJ104_4_3" index="3" disallow="pedestrian" speed="13.89" length="0.10" shape="1101.60,200.00 1101.60,200.00"/>
    </edge>
    <edge id=":gneJ104_w0" function="walkingarea">
        <lane id=":gneJ104_w0_0" index="0" allow="pedestrian" speed="1.00" length="0.10" width="2.00" shape="1087.20,200.00 1085.20,200.00 1085.20,200.00 1087.20,200.00"/>
    </edge>
    <edge id=":gneJ104_w1" function="walkingarea">
        <lane id=":gneJ104_w1_0" index="0" allow="pedestrian" speed="1.00" length="0.10" width="2.00" shape="1112.80,200.00 1114.80,200.00 1114.80,200.00 1112.80,200.00"/>
    </edge>
    <edge id=":gneJ105_0" function="internal">
        <lane id=":gneJ105_0_0" index="0" disallow="pedestrian" speed="13.89" length="33.60" shape="1116.80,311.20 1083.20,311.20"/>
        <lane id=":gneJ105_0_1" index="1" disallow="pedestrian" speed="13.89" length="33.60" shape="1116.80,308.00 1083.20,308.00"/>
        <lane id=":gneJ105_0_2" index="2" disallow="pedestrian" speed="13.89" length="33.60" shape="1116.80,304.80 1083.20,304.80"/>
        <lane id=":gneJ105_0_3" index="3" disallow="pedestrian" speed="13.89" length="33.60" shape="1116.80,301.60 1083.20,301.60"/>
    </edge>
    <edge id=":gneJ105_4" function="internal">
        <lane id=":gneJ105_4_0" index="0" disallow="pedestrian" speed="11.84" length="10.51" shape="1116.80,301.60 1107.35,300.45 1106.47,300.00"/>
    </edge>
    <edge id=":gneJ105_5" function="internal">
        <lane id=":gneJ105_5_0" index="0" disallow="pedestrian" speed="11.36" length="9.01" shape="1116.80,301.60 1108.75,300.45 1108.00,300.00"/>
    </edge>
    <edge id=":gneJ105_18" function="internal">
        <lane id=":gneJ105_18_0" index="0" disallow="pedestrian" speed="11.84" length="21.79" shape="1106.47,300.00 1100.60,297.00 1096.55,291.25 1095.20,283.20"/>
    </edge>
    <edge id=":gneJ105_19" function="internal">
        <lane id=":gneJ105_19_0" index="0" disallow="pedestrian" speed="11.36" length="20.67" shape="1108.00,300.00 1103.00,297.00 1099.55,291.25 1098.40,283.20"/>
    </edge>
    <edge id=":gneJ105_6" function="internal">
        <lane id=":gneJ105_6_0" index="0" disallow="pedestrian" speed="6.51" length="4.75" shape="1111.20,283.20 1111.55,285.65 1112.60,287.40 1112.80,287.52"/>
    </edge>
    <edge id=":gneJ105_7" function="internal">
        <lane id=":gneJ105_7_0" index="0" disallow="pedestrian" speed="8.00" length="10.13" shape="1108.00,283.20 1108.55,287.05 1110.20,289.80 1112.80,291.36"/>
    </edge>
    <edge id=":gneJ105_8" function="internal">
        <lane id=":gneJ105_8_0" index="0" disallow="pedestrian" speed="8.67" length="12.74" shape="1108.00,283.20 1108.55,288.45 1110.20,292.20 1112.80,294.33"/>
    </edge>
    <edge id=":gneJ105_9" function="internal">
        <lane id=":gneJ105_9_0" index="0" disallow="pedestrian" speed="12.28" length="30.79" shape="1104.80,283.20 1103.45,292.65 1099.40,299.40 1092.65,303.45 1087.20,304.23"/>
    </edge>
    <edge id=":gneJ105_10" function="internal">
        <lane id=":gneJ105_10_0" index="0" disallow="pedestrian" speed="11.36" length="25.63" shape="1101.60,283.20 1100.45,291.25 1097.00,297.00 1091.25,300.45 1087.20,301.03"/>
    </edge>
    <edge id=":gneJ105_20" function="internal">
        <lane id=":gneJ105_20_0" index="0" disallow="pedestrian" speed="6.51" length="4.28" shape="1112.80,287.52 1114.35,288.45 1116.80,288.80"/>
    </edge>
    <edge id=":gneJ105_21" function="internal">
        <lane id=":gneJ105_21_0" index="0" disallow="pedestrian" speed="8.00" length="4.06" shape="1112.80,291.36 1112.95,291.45 1116.80,292.00"/>
    </edge>
    <edge id=":gneJ105_22" function="internal">
        <lane id=":gneJ105_22_0" index="0" disallow="pedestrian" speed="8.67" length="4.12" shape="1112.80,294.33 1112.95,294.45 1116.80,295.20"/>
    </edge>
    <edge id=":gneJ105_23" function="internal">
        <lane id=":gneJ105_23_0" index="0" disallow="pedestrian" speed="12.28" length="4.04" shape="1087.20,304.23 1083.20,304.80"/>
    </edge>
    <edge id=":gneJ105_24" function="internal">
        <lane id=":gneJ105_24_0" index="0" disallow="pedestrian" speed="11.36" length="4.04" shape="1087.20,301.03 1083.20,301.60"/>
    </edge>
    <edge id=":gneJ105_11" function="internal">
        <lane id=":gneJ105_11_0" index="0" disallow="pedestrian" speed="6.51" length="4.75" shape="1083.20,288.80 1085.65,288.45 1087.40,287.40 1087.52,287.20"/>
    </edge>
    <edge id=":gneJ105_12" function="internal">
        <lane id=":gneJ105_12_0" index="0" disallow="pedestrian" speed="7.33" length="7.08" shape="1083.20,288.80 1087.05,288.45 1089.80,287.40 1089.99,287.20"/>
    </edge>
    <edge id=":gneJ105_13" function="internal">
        <lane id=":gneJ105_13_0" index="0" disallow="pedestrian" speed="8.10" length="9.48" shape="1083.20,288.80 1088.45,288.45 1092.20,287.40 1092.46,287.20"/>
    </edge>
    <edge id=":gneJ105_14" function="internal">
        <lane id=":gneJ105_14_0" index="0" disallow="pedestrian" speed="13.89" length="33.60" shape="1083.20,288.80 1116.80,288.80"/>
        <lane id=":gneJ105_14_1" index="1" disallow="pedestrian" speed="13.89" length="33.60" shape="1083.20,292.00 1116.80,292.00"/>
        <lane id=":gneJ105_14_2" index="2" disallow="pedestrian" speed="13.89" length="33.60" shape="1083.20,295.20 1116.80,295.20"/>
        <lane id=":gneJ105_14_3" index="3" disallow="pedestrian" speed="13.89" length="33.60" shape="1083.20,298.40 1116.80,298.40"/>
    </edge>
    <edge id=":gneJ105_25" function="internal">
        <lane id=":gneJ105_25_0" index="0" disallow="pedestrian" speed="6.51" length="4.28" shape="1087.52,287.20 1088.45,285.65 1088.80,283.20"/>
    </edge>
    <edge id=":gneJ105_26" function="internal">
        <lane id=":gneJ105_26_0" index="0" disallow="pedestrian" speed="7.33" length="4.64" shape="1089.99,287.20 1091.45,285.65 1092.00,283.20"/>
    </edge>
    <edge id=":gneJ105_27" function="internal">
        <lane id=":gneJ105_27_0" index="0" disallow="pedestrian" speed="8.10" length="5.09" shape="1092.46,287.20 1094.45,285.65 1095.20,283.20"/>
    </edge>
    <edge id=":gneJ105_c0" function="crossing" crossingEdges="gneE232 gneE233">
        <lane id=":gneJ105_c0_0" index="0" allow="pedestrian" speed="1.00" length="25.60" width="4.00" shape="1114.80,287.20 1114.80,312.80"/>
    </edge>
    <edge id=":gneJ105_c1" function="crossing" crossingEdges="gneE213 gneE212">
        <lane id=":gneJ105_c1_0" index="0" allow="pedestrian" speed="1.00" length="25.60" width="4.00" shape="1087.20,285.20 1112.80,285.20"/>
    </edge>
    <edge id=":gneJ105_c2" function="crossing" crossingEdges="gneE226 gneE227">
        <lane id=":gneJ105_c2_0" index="0" allow="pedestrian" speed="1.00" length="25.60" width="4.00" shape="1085.20,312.80 1085.20,287.20"/>
    </edge>
    <edge id=":gneJ105_w0" function="walkingarea">
        <lane id=":gneJ105_w0_0" index="0" allow="pedestrian" speed="1.00" length="21.82" width="4.00" shape="1087.20,312.80 1083.20,312.80 1083.20,314.80 1116.80,314.80 1116.80,312.80 1112.80,312.80"/>
    </edge>
    <edge id=":gneJ105_w1" function="walkingarea">
        <lane id=":gneJ105_w1_0" index="0" allow="pedestrian" speed="1.00" length="3.30" width="4.00" shape="1116.80,287.20 1116.80,285.20 1114.80,283.20 1112.80,283.20 1112.91,284.42 1113.24,285.42 1113.80,286.20 1114.58,286.76 1115.58,287.09"/>
    </edge>
    <edge id=":gneJ105_w2" function="walkingarea">
        <lane id=":gneJ105_w2_0" index="0" allow="pedestrian" speed="1.00" length="3.30" width="4.00" shape="1087.20,283.20 1085.20,283.20 1083.20,285.20 1083.20,287.20 1084.42,287.09 1085.42,286.76 1086.20,286.20 1086.76,285.42 1087.09,284.42"/>
    </edge>
    <edge id=":gneJ106_0" function="internal">
        <lane id=":gneJ106_0_0" index="0" disallow="pedestrian" speed="13.89" length="0.10" shape="1200.00,11.20 1200.00,11.20"/>
        <lane id=":gneJ106_0_1" index="1" disallow="pedestrian" speed="13.89" length="0.10" shape="1200.00,8.00 1200.00,8.00"/>
        <lane id=":gneJ106_0_2" index="2" disallow="pedestrian" speed="13.89" length="0.10" shape="1200.00,4.80 1200.00,4.80"/>
        <lane id=":gneJ106_0_3" index="3" disallow="pedestrian" speed="13.89" length="0.10" shape="1200.00,1.60 1200.00,1.60"/>
    </edge>
    <edge id=":gneJ106_4" function="internal">
        <lane id=":gneJ106_4_0" index="0" disallow="pedestrian" speed="13.89" length="0.10" shape="1200.00,-11.20 1200.00,-11.20"/>
        <lane id=":gneJ106_4_1" index="1" disallow="pedestrian" speed="13.89" length="0.10" shape="1200.00,-8.00 1200.00,-8.00"/>
        <lane id=":gneJ106_4_2" index="2" disallow="pedestrian" speed="13.89" length="0.10" shape="1200.00,-4.80 1200.00,-4.80"/>
        <lane id=":gneJ106_4_3" index="3" disallow="pedestrian" speed="13.89" length="0.10" shape="1200.00,-1.60 1200.00,-1.60"/>
    </edge>
    <edge id=":gneJ106_w0" function="walkingarea">
        <lane id=":gneJ106_w0_0" index="0" allow="pedestrian" speed="1.00" length="0.10" width="2.00" shape="1200.00,12.80 1200.00,14.80 1200.00,14.80 1200.00,12.80"/>
    </edge>
    <edge id=":gneJ106_w1" function="walkingarea">
        <lane id=":gneJ106_w1_0" index="0" allow="pedestrian" speed="1.00" length="0.10" width="2.00" shape="1200.00,-12.80 1200.00,-14.80 1200.00,-14.80 1200.00,-12.80"/>
    </edge>
    <edge id=":gneJ107_0" function="internal">
        <lane id=":gneJ107_0_0" index="0" disallow="pedestrian" speed="13.89" length="0.10" shape="1088.80,-100.00 1088.80,-100.00"/>
        <lane id=":gneJ107_0_1" index="1" disallow="pedestrian" speed="13.89" length="0.10" shape="1092.00,-100.00 1092.00,-100.00"/>
        <lane id=":gneJ107_0_2" index="2" disallow="pedestrian" speed="13.89" length="0.10" shape="1095.20,-100.00 1095.20,-100.00"/>
        <lane id=":gneJ107_0_3" index="3" disallow="pedestrian" speed="13.89" length="0.10" shape="1098.40,-100.00 1098.40,-100.00"/>
    </edge>
    <edge id=":gneJ107_4" function="internal">
        <lane id=":gneJ107_4_0" index="0" disallow="pedestrian" speed="13.89" length="0.10" shape="1111.20,-100.00 1111.20,-100.00"/>
        <lane id=":gneJ107_4_1" index="1" disallow="pedestrian" speed="13.89" length="0.10" shape="1108.00,-100.00 1108.00,-100.00"/>
        <lane id=":gneJ107_4_2" index="2" disallow="pedestrian" speed="13.89" length="0.10" shape="1104.80,-100.00 1104.80,-100.00"/>
        <lane id=":gneJ107_4_3" index="3" disallow="pedestrian" speed="13.89" length="0.10" shape="1101.60,-100.00 1101.60,-100.00"/>
    </edge>
    <edge id=":gneJ107_w0" function="walkingarea">
        <lane id=":gneJ107_w0_0" index="0" allow="pedestrian" speed="1.00" length="0.10" width="2.00" shape="1087.20,-100.00 1085.20,-100.00 1085.20,-100.00 1087.20,-100.00"/>
    </edge>
    <edge id=":gneJ107_w1" function="walkingarea">
        <lane id=":gneJ107_w1_0" index="0" allow="pedestrian" speed="1.00" length="0.10" width="2.00" shape="1112.80,-100.00 1114.80,-100.00 1114.80,-100.00 1112.80,-100.00"/>
    </edge>
    <edge id=":gneJ108_0" function="internal">
        <lane id=":gneJ108_0_0" index="0" disallow="pedestrian" speed="13.89" length="0.10" shape="1088.80,-200.00 1088.80,-200.00"/>
        <lane id=":gneJ108_0_1" index="1" disallow="pedestrian" speed="13.89" length="0.10" shape="1092.00,-200.00 1092.00,-200.00"/>
        <lane id=":gneJ108_0_2" index="2" disallow="pedestrian" speed="13.89" length="0.10" shape="1095.20,-200.00 1095.20,-200.00"/>
        <lane id=":gneJ108_0_3" index="3" disallow="pedestrian" speed="13.89" length="0.10" shape="1098.40,-200.00 1098.40,-200.00"/>
    </edge>
    <edge id=":gneJ108_4" function="internal">
        <lane id=":gneJ108_4_0" index="0" disallow="pedestrian" speed="13.89" length="0.10" shape="1111.20,-200.00 1111.20,-200.00"/>
        <lane id=":gneJ108_4_1" index="1" disallow="pedestrian" speed="13.89" length="0.10" shape="1108.00,-200.00 1108.00,-200.00"/>
        <lane id=":gneJ108_4_2" index="2" disallow="pedestrian" speed="13.89" length="0.10" shape="1104.80,-200.00 1104.80,-200.00"/>
        <lane id=":gneJ108_4_3" index="3" disallow="pedestrian" speed="13.89" length="0.10" shape="1101.60,-200.00 1101.60,-200.00"/>
    </edge>
    <edge id=":gneJ108_w0" function="walkingarea">
        <lane id=":gneJ108_w0_0" index="0" allow="pedestrian" speed="1.00" length="0.10" width="2.00" shape="1087.20,-200.00 1085.20,-200.00 1085.20,-200.00 1087.20,-200.00"/>
    </edge>
    <edge id=":gneJ108_w1" function="walkingarea">
        <lane id=":gneJ108_w1_0" index="0" allow="pedestrian" speed="1.00" length="0.10" width="2.00" shape="1112.80,-200.00 1114.80,-200.00 1114.80,-200.00 1112.80,-200.00"/>
    </edge>
    <edge id=":gneJ109_0" function="internal">