<routes>
    <!-- Routing cho xe o to -->
    <vType id="car" type="passenger" length="5" accel="0.2" decel="1.0" sigma="1.0"/>
    <flow id="carflow" type="car" begin="0" end="0" number="10" from="gneE18" to="gneE114"/>

    <!-- Routing cho nguoi di bo -->
    <vType id="pedestrian" vClass="pedestrian" guiShape="pedestrian/walking" length="2.0" width="0.5" height="1.7" color="1,1,0"/>
    <flow id="personflow" type="pedestrian" begin="0" end="0" number="5" from="gneE35" to="gneE45"/>

    <vType id="pedestrian1" vClass="pedestrian" guiShape="pedestrian/walking" length="2.0" width="0.5" height="1.7" color="1,1,0"/>
    <flow id="personflow1" type="pedestrian1" begin="0" end="0" number="5" from="gneE96" to="gneE100"/>

    <vType id="pedestrian2" vClass="pedestrian" guiShape="pedestrian/walking" length="2.0" width="0.5" height="1.7" color="1,1,0"/>
    <flow id="personflow2" type="pedestrian2" begin="0" end="0" number="10" from="gneE116" to="gneE90"/>

    <vType id="pedestrian3" vClass="pedestrian" guiShape="pedestrian/walking" length="2.0" width="0.5" height="1.7" color="1,1,0"/>
    <flow id="personflow3" type="pedestrian3" begin="0" end="0" number="10" from="gneE87" to="gneE76"/>

    <vType id="pedestrian4" vClass="pedestrian" guiShape="pedestrian/walking" length="2.0" width="0.5" height="1.7" color="1,1,0"/>
    <flow id="personflow4" type="pedestrian4" begin="0" end="0" number="10" from="gneE118" to="gneE90"/>

    <vType id="pedestrian5" vClass="pedestrian" guiShape="pedestrian/walking" length="2.0" width="0.5" height="1.7" color="1,1,0"/>
    <flow id="personflow5" type="pedestrian5" begin="0" end="0" number="10" from="gneE36" to="gneE46"/>
</routes>
