<?xml version="1.0" encoding="UTF-8"?>

<!-- generated on Thứ sáu, 19 Tháng 4 Năm 2024 15:23:51 +07 by Eclipse SUMO netedit Version 1.8.0
<configuration xmlns:xsi="http://www.w3.org/2001/XMLSchema-instance" xsi:noNamespaceSchemaLocation="http://sumo.dlr.de/xsd/netconvertConfiguration.xsd">

    <input>
        <sumo-net-file value="/home/vqanh77/map_week6/map1.net.xml"/>
    </input>

    <output>
        <output-file value="/home/vqanh77/map_week6/map1.net.xml"/>
    </output>

    <processing>
        <geometry.min-radius.fix.railways value="false"/>
        <geometry.max-grade.fix value="false"/>
        <offset.disable-normalization value="true"/>
        <lefthand value="false"/>
    </processing>

    <junctions>
        <no-internal-links value="false"/>
        <no-turnarounds value="true"/>
        <junctions.corner-detail value="5"/>
        <junctions.limit-turn-speed value="5.5"/>
        <rectangular-lane-cut value="false"/>
    </junctions>

    <pedestrian>
        <walkingareas value="false"/>
    </pedestrian>

    <report>
        <aggregate-warnings value="5"/>
    </report>

</configuration>
-->

<net version="1.6" junctionCornerDetail="5" limitTurnSpeed="5.50" xmlns:xsi="http://www.w3.org/2001/XMLSchema-instance" xsi:noNamespaceSchemaLocation="http://sumo.dlr.de/xsd/net_file.xsd">

    <location netOffset="0.00,0.00" convBoundary="400.00,-300.00,1900.00,200.00" origBoundary="-10000000000.00,-10000000000.00,10000000000.00,10000000000.00" projParameter="!"/>

    <edge id=":gneJ13_0" function="internal">
        <lane id=":gneJ13_0_0" index="0" disallow="pedestrian" speed="13.44" length="41.93" shape="514.80,211.20 503.43,209.57 495.30,204.70 490.43,196.57 488.80,185.20"/>
    </edge>
    <edge id=":gneJ13_1" function="internal">
        <lane id=":gneJ13_1_0" index="0" disallow="pedestrian" speed="12.61" length="36.77" shape="514.80,208.00 504.82,206.57 497.70,202.30 493.43,195.18 492.00,185.20"/>
    </edge>
    <edge id=":gneJ13_2" function="internal">
        <lane id=":gneJ13_2_0" index="0" disallow="pedestrian" speed="11.71" length="31.61" shape="514.80,204.80 506.22,203.57 500.10,199.90 496.43,193.78 495.20,185.20"/>
    </edge>
    <edge id=":gneJ13_3" function="internal">
        <lane id=":gneJ13_3_0" index="0" disallow="pedestrian" speed="10.75" length="26.45" shape="514.80,201.60 507.62,200.57 502.50,197.50 499.42,192.38 498.40,185.20"/>
    </edge>
    <edge id=":gneJ13_4" function="internal">
        <lane id=":gneJ13_4_0" index="0" disallow="pedestrian" speed="5.37" length="5.81" shape="511.20,185.20 511.43,186.78 512.10,187.90 513.22,188.58 514.80,188.80"/>
    </edge>
    <edge id=":gneJ13_5" function="internal">
        <lane id=":gneJ13_5_0" index="0" disallow="pedestrian" speed="7.10" length="10.97" shape="508.00,185.20 508.43,188.18 509.70,190.30 511.82,191.57 514.80,192.00"/>
    </edge>
    <edge id=":gneJ13_6" function="internal">
        <lane id=":gneJ13_6_0" index="0" disallow="pedestrian" speed="8.49" length="16.13" shape="504.80,185.20 505.43,189.57 507.30,192.70 510.43,194.57 514.80,195.20"/>
    </edge>
    <edge id=":gneJ13_7" function="internal">
        <lane id=":gneJ13_7_0" index="0" disallow="pedestrian" speed="9.69" length="21.29" shape="501.60,185.20 502.43,190.97 504.90,195.10 509.02,197.57 514.80,198.40"/>
    </edge>
    <edge id=":gneJ13_w0" function="walkingarea">
        <lane id=":gneJ13_w0_0" index="0" allow="pedestrian" speed="1.00" length="40.45" width="2.00" shape="487.20,185.20 485.20,185.20 514.80,214.80 514.80,212.80 506.37,212.03 499.47,209.73 494.10,205.90 490.27,200.53 487.97,193.63"/>
    </edge>
    <edge id=":gneJ13_w1" function="walkingarea">
        <lane id=":gneJ13_w1_0" index="0" allow="pedestrian" speed="1.00" length="1.41" width="2.00" shape="514.80,187.20 514.80,185.20 514.80,185.20 512.80,185.20 512.86,185.81 513.02,186.31 513.30,186.70 513.69,186.98 514.19,187.14"/>
    </edge>
    <edge id=":gneJ14_0" function="internal">
        <lane id=":gneJ14_0_0" index="0" disallow="pedestrian" speed="6.51" length="4.75" shape="488.80,116.80 488.45,114.35 487.40,112.60 487.20,112.48"/>
    </edge>
    <edge id=":gneJ14_1" function="internal">
        <lane id=":gneJ14_1_0" index="0" disallow="pedestrian" speed="13.89" length="33.60" shape="488.80,116.80 488.80,83.20"/>
        <lane id=":gneJ14_1_1" index="1" disallow="pedestrian" speed="13.89" length="33.60" shape="492.00,116.80 492.00,83.20"/>
        <lane id=":gneJ14_1_2" index="2" disallow="pedestrian" speed="13.89" length="33.60" shape="495.20,116.80 495.20,83.20"/>
        <lane id=":gneJ14_1_3" index="3" disallow="pedestrian" speed="13.89" length="33.60" shape="498.40,116.80 498.40,83.20"/>
    </edge>
    <edge id=":gneJ14_5" function="internal">
        <lane id=":gneJ14_5_0" index="0" disallow="pedestrian" speed="11.36" length="9.01" shape="498.40,116.80 499.55,108.75 500.00,108.00"/>
    </edge>
    <edge id=":gneJ14_28" function="internal">
        <lane id=":gneJ14_28_0" index="0" disallow="pedestrian" speed="6.51" length="4.28" shape="487.20,112.48 485.65,111.55 483.20,111.20"/>
    </edge>
    <edge id=":gneJ14_29" function="internal">
        <lane id=":gneJ14_29_0" index="0" disallow="pedestrian" speed="11.36" length="20.67" shape="500.00,108.00 503.00,103.00 508.75,99.55 516.80,98.40"/>
    </edge>
    <edge id=":gneJ14_6" function="internal">
        <lane id=":gneJ14_6_0" index="0" disallow="pedestrian" speed="6.51" length="4.75" shape="516.80,111.20 514.35,111.55 512.60,112.60 512.48,112.80"/>
    </edge>
    <edge id=":gneJ14_7" function="internal">
        <lane id=":gneJ14_7_0" index="0" disallow="pedestrian" speed="8.00" length="10.13" shape="516.80,108.00 512.95,108.55 510.20,110.20 508.64,112.80"/>
    </edge>
    <edge id=":gneJ14_8" function="internal">
        <lane id=":gneJ14_8_0" index="0" disallow="pedestrian" speed="13.89" length="33.70" shape="516.80,108.00 506.80,108.50 500.00,109.60 493.20,110.70 483.20,111.20"/>
        <lane id=":gneJ14_8_1" index="1" disallow="pedestrian" speed="13.89" length="33.70" shape="516.80,108.00 483.20,108.00"/>
        <lane id=":gneJ14_8_2" index="2" disallow="pedestrian" speed="13.89" length="33.70" shape="516.80,104.80 483.20,104.80"/>
        <lane id=":gneJ14_8_3" index="3" disallow="pedestrian" speed="13.89" length="33.70" shape="516.80,104.80 506.80,104.30 500.00,103.20 493.20,102.10 483.20,101.60"/>
    </edge>
    <edge id=":gneJ14_12" function="internal">
        <lane id=":gneJ14_12_0" index="0" disallow="pedestrian" speed="12.28" length="18.56" shape="516.80,104.80 507.35,103.45 500.60,99.40 500.01,98.42"/>
    </edge>
    <edge id=":gneJ14_13" function="internal">
        <lane id=":gneJ14_13_0" index="0" disallow="pedestrian" speed="11.36" length="9.94" shape="516.80,101.60 508.75,100.45 507.20,99.52"/>
    </edge>
    <edge id=":gneJ14_30" function="internal">
        <lane id=":gneJ14_30_0" index="0" disallow="pedestrian" speed="6.51" length="4.28" shape="512.48,112.80 511.55,114.35 511.20,116.80"/>
    </edge>
    <edge id=":gneJ14_31" function="internal">
        <lane id=":gneJ14_31_0" index="0" disallow="pedestrian" speed="8.00" length="4.06" shape="508.64,112.80 508.55,112.95 508.00,116.80"/>
    </edge>
    <edge id=":gneJ14_32" function="internal">
        <lane id=":gneJ14_32_0" index="0" disallow="pedestrian" speed="12.28" length="16.28" shape="500.01,98.42 496.55,92.65 495.20,83.20"/>
    </edge>
    <edge id=":gneJ14_33" function="internal">
        <lane id=":gneJ14_33_0" index="0" disallow="pedestrian" speed="11.36" length="19.74" shape="507.20,99.52 503.00,97.00 499.55,91.25 498.40,83.20"/>
    </edge>
    <edge id=":gneJ14_14" function="internal">
        <lane id=":gneJ14_14_0" index="0" disallow="pedestrian" speed="6.51" length="4.75" shape="511.20,83.20 511.55,85.65 512.60,87.40 512.80,87.52"/>
    </edge>
    <edge id=":gneJ14_15" function="internal">
        <lane id=":gneJ14_15_0" index="0" disallow="pedestrian" speed="13.89" length="33.60" shape="511.20,83.20 511.20,116.80"/>
        <lane id=":gneJ14_15_1" index="1" disallow="pedestrian" speed="13.89" length="33.60" shape="508.00,83.20 508.00,116.80"/>
        <lane id=":gneJ14_15_2" index="2" disallow="pedestrian" speed="13.89" length="33.60" shape="504.80,83.20 504.80,116.80"/>
        <lane id=":gneJ14_15_3" index="3" disallow="pedestrian" speed="13.89" length="33.60" shape="501.60,83.20 501.60,116.80"/>
    </edge>
    <edge id=":gneJ14_19" function="internal">
        <lane id=":gneJ14_19_0" index="0" disallow="pedestrian" speed="11.36" length="9.01" shape="501.60,83.20 500.45,91.25 500.00,92.00"/>
    </edge>
    <edge id=":gneJ14_34" function="internal">
        <lane id=":gneJ14_34_0" index="0" disallow="pedestrian" speed="6.51" length="4.28" shape="512.80,87.52 514.35,88.45 516.80,88.80"/>
    </edge>
    <edge id=":gneJ14_35" function="internal">
        <lane id=":gneJ14_35_0" index="0" disallow="pedestrian" speed="11.36" length="20.67" shape="500.00,92.00 497.00,97.00 491.25,100.45 483.20,101.60"/>
    </edge>
    <edge id=":gneJ14_20" function="internal">
        <lane id=":gneJ14_20_0" index="0" disallow="pedestrian" speed="6.51" length="4.75" shape="483.20,88.80 485.65,88.45 487.40,87.40 487.52,87.20"/>
    </edge>
    <edge id=":gneJ14_21" function="internal">
        <lane id=":gneJ14_21_0" index="0" disallow="pedestrian" speed="8.00" length="10.13" shape="483.20,92.00 487.05,91.45 489.80,89.80 491.36,87.20"/>
    </edge>
    <edge id=":gneJ14_22" function="internal">
        <lane id=":gneJ14_22_0" index="0" disallow="pedestrian" speed="13.89" length="33.70" shape="483.20,92.00 493.20,91.50 500.00,90.40 506.80,89.30 516.80,88.80"/>
        <lane id=":gneJ14_22_1" index="1" disallow="pedestrian" speed="13.89" length="33.70" shape="483.20,92.00 516.80,92.00"/>
        <lane id=":gneJ14_22_2" index="2" disallow="pedestrian" speed="13.89" length="33.70" shape="483.20,95.20 516.80,95.20"/>
        <lane id=":gneJ14_22_3" index="3" disallow="pedestrian" speed="13.89" length="33.70" shape="483.20,95.20 493.20,95.70 500.00,96.80 506.80,97.90 516.80,98.40"/>
    </edge>
    <edge id=":gneJ14_26" function="internal">
        <lane id=":gneJ14_26_0" index="0" disallow="pedestrian" speed="12.28" length="18.56" shape="483.20,95.20 492.65,96.55 499.40,100.60 499.99,101.58"/>
    </edge>
    <edge id=":gneJ14_27" function="internal">
        <lane id=":gneJ14_27_0" index="0" disallow="pedestrian" speed="11.36" length="9.94" shape="483.20,98.40 491.25,99.55 492.80,100.48"/>
    </edge>
    <edge id=":gneJ14_36" function="internal">
        <lane id=":gneJ14_36_0" index="0" disallow="pedestrian" speed="6.51" length="4.28" shape="487.52,87.20 488.45,85.65 488.80,83.20"/>
    </edge>
    <edge id=":gneJ14_37" function="internal">
        <lane id=":gneJ14_37_0" index="0" disallow="pedestrian" speed="8.00" length="4.06" shape="491.36,87.20 491.45,87.05 492.00,83.20"/>
    </edge>
    <edge id=":gneJ14_38" function="internal">
        <lane id=":gneJ14_38_0" index="0" disallow="pedestrian" speed="12.28" length="16.28" shape="499.99,101.58 503.45,107.35 504.80,116.80"/>
    </edge>
    <edge id=":gneJ14_39" function="internal">
        <lane id=":gneJ14_39_0" index="0" disallow="pedestrian" speed="11.36" length="19.74" shape="492.80,100.48 497.00,103.00 500.45,108.75 501.60,116.80"/>
    </edge>
    <edge id=":gneJ14_c0" function="crossing" crossingEdges="gneE23 gneE16">
        <lane id=":gneJ14_c0_0" index="0" allow="pedestrian" speed="1.00" length="25.60" width="4.00" shape="512.80,114.80 487.20,114.80"/>
    </edge>
    <edge id=":gneJ14_c1" function="crossing" crossingEdges="gneE20 gneE19">
        <lane id=":gneJ14_c1_0" index="0" allow="pedestrian" speed="1.00" length="25.60" width="4.00" shape="514.80,87.20 514.80,112.80"/>
    </edge>
    <edge id=":gneJ14_c2" function="crossing" crossingEdges="gneE21 gneE17">
        <lane id=":gneJ14_c2_0" index="0" allow="pedestrian" speed="1.00" length="25.60" width="4.00" shape="487.20,85.20 512.80,85.20"/>
    </edge>
    <edge id=":gneJ14_c3" function="crossing" crossingEdges="gneE22 gneE18">
        <lane id=":gneJ14_c3_0" index="0" allow="pedestrian" speed="1.00" length="25.60" width="4.00" shape="485.20,112.80 485.20,87.20"/>
    </edge>
    <edge id=":gneJ14_w0" function="walkingarea">
        <lane id=":gneJ14_w0_0" index="0" allow="pedestrian" speed="1.00" length="3.30" width="4.00" shape="483.20,112.80 483.20,114.80 485.20,116.80 487.20,116.80 487.09,115.58 486.76,114.58 486.20,113.80 485.42,113.24 484.42,112.91"/>
    </edge>
    <edge id=":gneJ14_w1" function="walkingarea">
        <lane id=":gneJ14_w1_0" index="0" allow="pedestrian" speed="1.00" length="3.30" width="4.00" shape="512.80,116.80 514.80,116.80 516.80,114.80 516.80,112.80 515.58,112.91 514.58,113.24 513.80,113.80 513.24,114.58 512.91,115.58"/>
    </edge>
    <edge id=":gneJ14_w2" function="walkingarea">
        <lane id=":gneJ14_w2_0" index="0" allow="pedestrian" speed="1.00" length="3.30" width="4.00" shape="516.80,87.20 516.80,85.20 514.80,83.20 512.80,83.20 512.91,84.42 513.24,85.42 513.80,86.20 514.58,86.76 515.58,87.09"/>
    </edge>
    <edge id=":gneJ14_w3" function="walkingarea">
        <lane id=":gneJ14_w3_0" index="0" allow="pedestrian" speed="1.00" length="3.30" width="4.00" shape="487.20,83.20 485.20,83.20 483.20,85.20 483.20,87.20 484.42,87.09 485.42,86.76 486.20,86.20 486.76,85.42 487.09,84.42"/>
    </edge>
    <edge id=":gneJ15_0" function="internal">
        <lane id=":gneJ15_0_0" index="0" disallow="pedestrian" speed="13.89" length="0.10" shape="488.80,0.00 488.80,0.00"/>
        <lane id=":gneJ15_0_1" index="1" disallow="pedestrian" speed="13.89" length="0.10" shape="492.00,0.00 492.00,0.00"/>
        <lane id=":gneJ15_0_2" index="2" disallow="pedestrian" speed="13.89" length="0.10" shape="495.20,0.00 495.20,0.00"/>
        <lane id=":gneJ15_0_3" index="3" disallow="pedestrian" speed="13.89" length="0.10" shape="498.40,0.00 498.40,0.00"/>
    </edge>
    <edge id=":gneJ15_4" function="internal">
        <lane id=":gneJ15_4_0" index="0" disallow="pedestrian" speed="13.89" length="0.10" shape="511.20,0.00 511.20,0.00"/>
        <lane id=":gneJ15_4_1" index="1" disallow="pedestrian" speed="13.89" length="0.10" shape="508.00,0.00 508.00,0.00"/>
        <lane id=":gneJ15_4_2" index="2" disallow="pedestrian" speed="13.89" length="0.10" shape="504.80,0.00 504.80,0.00"/>
        <lane id=":gneJ15_4_3" index="3" disallow="pedestrian" speed="13.89" length="0.10" shape="501.60,0.00 501.60,0.00"/>
    </edge>
    <edge id=":gneJ15_w0" function="walkingarea">
        <lane id=":gneJ15_w0_0" index="0" allow="pedestrian" speed="1.00" length="0.10" width="2.00" shape="487.20,0.00 485.20,0.00 485.20,0.00 487.20,0.00"/>
    </edge>
    <edge id=":gneJ15_w1" function="walkingarea">
        <lane id=":gneJ15_w1_0" index="0" allow="pedestrian" speed="1.00" length="0.10" width="2.00" shape="512.80,0.00 514.80,0.00 514.80,0.00 512.80,0.00"/>
    </edge>
    <edge id=":gneJ16_w0" function="walkingarea">
        <lane id=":gneJ16_w0_0" index="0" allow="pedestrian" speed="1.00" length="27.60" width="2.00" shape="400.00,87.20 400.00,85.20 400.00,114.80 400.00,112.80"/>
    </edge>
    <edge id=":gneJ17_0" function="internal">
        <lane id=":gneJ17_0_0" index="0" disallow="pedestrian" speed="13.89" length="0.10" shape="600.00,111.20 600.00,111.20"/>
        <lane id=":gneJ17_0_1" index="1" disallow="pedestrian" speed="13.89" length="0.10" shape="600.00,108.00 600.00,108.00"/>
        <lane id=":gneJ17_0_2" index="2" disallow="pedestrian" speed="13.89" length="0.10" shape="600.00,104.80 600.00,104.80"/>
        <lane id=":gneJ17_0_3" index="3" disallow="pedestrian" speed="13.89" length="0.10" shape="600.00,101.60 600.00,101.60"/>
    </edge>
    <edge id=":gneJ17_4" function="internal">
        <lane id=":gneJ17_4_0" index="0" disallow="pedestrian" speed="13.89" length="0.10" shape="600.00,88.80 600.00,88.80"/>
        <lane id=":gneJ17_4_1" index="1" disallow="pedestrian" speed="13.89" length="0.10" shape="600.00,92.00 600.00,92.00"/>
        <lane id=":gneJ17_4_2" index="2" disallow="pedestrian" speed="13.89" length="0.10" shape="600.00,95.20 600.00,95.20"/>
        <lane id=":gneJ17_4_3" index="3" disallow="pedestrian" speed="13.89" length="0.10" shape="600.00,98.40 600.00,98.40"/>
    </edge>
    <edge id=":gneJ17_w0" function="walkingarea">
        <lane id=":gneJ17_w0_0" index="0" allow="pedestrian" speed="1.00" length="0.10" width="2.00" shape="600.00,112.80 600.00,114.80 600.00,114.80 600.00,112.80"/>
    </edge>
    <edge id=":gneJ17_w1" function="walkingarea">
        <lane id=":gneJ17_w1_0" index="0" allow="pedestrian" speed="1.00" length="0.10" width="2.00" shape="600.00,87.20 600.00,85.20 600.00,85.20 600.00,87.20"/>
    </edge>
    <edge id=":gneJ19_0" function="internal">
        <lane id=":gneJ19_0_0" index="0" disallow="pedestrian" speed="6.51" length="4.75" shape="488.80,-183.20 488.45,-185.65 487.40,-187.40 487.20,-187.52"/>
    </edge>
    <edge id=":gneJ19_1" function="internal">
        <lane id=":gneJ19_1_0" index="0" disallow="pedestrian" speed="13.89" length="33.60" shape="488.80,-183.20 488.80,-216.80"/>
        <lane id=":gneJ19_1_1" index="1" disallow="pedestrian" speed="13.89" length="33.60" shape="492.00,-183.20 492.00,-216.80"/>
        <lane id=":gneJ19_1_2" index="2" disallow="pedestrian" speed="13.89" length="33.60" shape="495.20,-183.20 495.20,-216.80"/>
        <lane id=":gneJ19_1_3" index="3" disallow="pedestrian" speed="13.89" length="33.60" shape="498.40,-183.20 498.40,-216.80"/>
    </edge>
    <edge id=":gneJ19_5" function="internal">
        <lane id=":gneJ19_5_0" index="0" disallow="pedestrian" speed="11.36" length="9.01" shape="498.40,-183.20 499.55,-191.25 500.00,-192.00"/>
    </edge>
    <edge id=":gneJ19_24" function="internal">
        <lane id=":gneJ19_24_0" index="0" disallow="pedestrian" speed="6.51" length="4.28" shape="487.20,-187.52 485.65,-188.45 483.20,-188.80"/>
    </edge>
    <edge id=":gneJ19_25" function="internal">
        <lane id=":gneJ19_25_0" index="0" disallow="pedestrian" speed="11.36" length="20.67" shape="500.00,-192.00 503.00,-197.00 508.75,-200.45 516.80,-201.60"/>
    </edge>
    <edge id=":gneJ19_6" function="internal">
        <lane id=":gneJ19_6_0" index="0" disallow="pedestrian" speed="6.51" length="4.75" shape="516.80,-188.80 514.35,-188.45 512.60,-187.40 512.48,-187.20"/>
    </edge>
    <edge id=":gneJ19_7" function="internal">
        <lane id=":gneJ19_7_0" index="0" disallow="pedestrian" speed="13.89" length="33.60" shape="516.80,-188.80 483.20,-188.80"/>
        <lane id=":gneJ19_7_1" index="1" disallow="pedestrian" speed="13.89" length="33.60" shape="516.80,-192.00 483.20,-192.00"/>
        <lane id=":gneJ19_7_2" index="2" disallow="pedestrian" speed="13.89" length="33.60" shape="516.80,-195.20 483.20,-195.20"/>
        <lane id=":gneJ19_7_3" index="3" disallow="pedestrian" speed="13.89" length="33.60" shape="516.80,-198.40 483.20,-198.40"/>
    </edge>
    <edge id=":gneJ19_11" function="internal">
        <lane id=":gneJ19_11_0" index="0" disallow="pedestrian" speed="11.36" length="9.01" shape="516.80,-198.40 508.75,-199.55 508.00,-200.00"/>
    </edge>
    <edge id=":gneJ19_26" function="internal">
        <lane id=":gneJ19_26_0" index="0" disallow="pedestrian" speed="6.51" length="4.28" shape="512.48,-187.20 511.55,-185.65 511.20,-183.20"/>
    </edge>
    <edge id=":gneJ19_27" function="internal">
        <lane id=":gneJ19_27_0" index="0" disallow="pedestrian" speed="11.36" length="20.67" shape="508.00,-200.00 503.00,-203.00 499.55,-208.75 498.40,-216.80"/>
    </edge>
    <edge id=":gneJ19_12" function="internal">
        <lane id=":gneJ19_12_0" index="0" disallow="pedestrian" speed="6.51" length="4.75" shape="511.20,-216.80 511.55,-214.35 512.60,-212.60 512.80,-212.48"/>
    </edge>
    <edge id=":gneJ19_13" function="internal">
        <lane id=":gneJ19_13_0" index="0" disallow="pedestrian" speed="13.89" length="33.60" shape="511.20,-216.80 511.20,-183.20"/>
        <lane id=":gneJ19_13_1" index="1" disallow="pedestrian" speed="13.89" length="33.60" shape="508.00,-216.80 508.00,-183.20"/>
        <lane id=":gneJ19_13_2" index="2" disallow="pedestrian" speed="13.89" length="33.60" shape="504.80,-216.80 504.80,-183.20"/>
        <lane id=":gneJ19_13_3" index="3" disallow="pedestrian" speed="13.89" length="33.60" shape="501.60,-216.80 501.60,-183.20"/>
    </edge>
    <edge id=":gneJ19_17" function="internal">
        <lane id=":gneJ19_17_0" index="0" disallow="pedestrian" speed="11.36" length="9.01" shape="501.60,-216.80 500.45,-208.75 500.00,-208.00"/>
    </edge>
    <edge id=":gneJ19_28" function="internal">
        <lane id=":gneJ19_28_0" index="0" disallow="pedestrian" speed="6.51" length="4.28" shape="512.80,-212.48 514.35,-211.55 516.80,-211.20"/>
    </edge>
    <edge id=":gneJ19_29" function="internal">
        <lane id=":gneJ19_29_0" index="0" disallow="pedestrian" speed="11.36" length="20.67" shape="500.00,-208.00 497.00,-203.00 491.25,-199.55 483.20,-198.40"/>
    </edge>
    <edge id=":gneJ19_18" function="internal">
        <lane id=":gneJ19_18_0" index="0" disallow="pedestrian" speed="6.51" length="4.75" shape="483.20,-211.20 485.65,-211.55 487.40,-212.60 487.52,-212.80"/>
    </edge>
    <edge id=":gneJ19_19" function="internal">
        <lane id=":gneJ19_19_0" index="0" disallow="pedestrian" speed="13.89" length="33.60" shape="483.20,-211.20 516.80,-211.20"/>
        <lane id=":gneJ19_19_1" index="1" disallow="pedestrian" speed="13.89" length="33.60" shape="483.20,-208.00 516.80,-208.00"/>
        <lane id=":gneJ19_19_2" index="2" disallow="pedestrian" speed="13.89" length="33.60" shape="483.20,-204.80 516.80,-204.80"/>
        <lane id=":gneJ19_19_3" index="3" disallow="pedestrian" speed="13.89" length="33.60" shape="483.20,-201.60 516.80,-201.60"/>
    </edge>
    <edge id=":gneJ19_23" function="internal">
        <lane id=":gneJ19_23_0" index="0" disallow="pedestrian" speed="11.36" length="9.01" shape="483.20,-201.60 491.25,-200.45 492.00,-200.00"/>
    </edge>
    <edge id=":gneJ19_30" function="internal">
        <lane id=":gneJ19_30_0" index="0" disallow="pedestrian" speed="6.51" length="4.28" shape="487.52,-212.80 488.45,-214.35 488.80,-216.80"/>
    </edge>
    <edge id=":gneJ19_31" function="internal">
        <lane id=":gneJ19_31_0" index="0" disallow="pedestrian" speed="11.36" length="20.67" shape="492.00,-200.00 497.00,-197.00 500.45,-191.25 501.60,-183.20"/>
    </edge>
    <edge id=":gneJ19_c0" function="crossing" crossingEdges="gneE24 gneE25">
        <lane id=":gneJ19_c0_0" index="0" allow="pedestrian" speed="1.00" length="25.60" width="4.00" shape="512.80,-185.20 487.20,-185.20"/>
    </edge>
    <edge id=":gneJ19_c1" function="crossing" crossingEdges="gneE26 gneE31">
        <lane id=":gneJ19_c1_0" index="0" allow="pedestrian" speed="1.00" length="25.60" width="4.00" shape="514.80,-212.80 514.80,-187.20"/>
    </edge>
    <edge id=":gneJ19_c2" function="crossing" crossingEdges="gneE30 gneE27">
        <lane id=":gneJ19_c2_0" index="0" allow="pedestrian" speed="1.00" length="25.60" width="4.00" shape="487.20,-214.80 512.80,-214.80"/>
    </edge>
    <edge id=":gneJ19_c3" function="crossing" crossingEdges="gneE29 gneE28">
        <lane id=":gneJ19_c3_0" index="0" allow="pedestrian" speed="1.00" length="25.60" width="4.00" shape="485.20,-187.20 485.20,-212.80"/>
    </edge>
    <edge id=":gneJ19_w0" function="walkingarea">
        <lane id=":gneJ19_w0_0" index="0" allow="pedestrian" speed="1.00" length="3.30" width="4.00" shape="483.20,-187.20 483.20,-185.20 485.20,-183.20 487.20,-183.20 487.09,-184.42 486.76,-185.42 486.20,-186.20 485.42,-186.76 484.42,-187.09"/>
    </edge>
    <edge id=":gneJ19_w1" function="walkingarea">
        <lane id=":gneJ19_w1_0" index="0" allow="pedestrian" speed="1.00" length="3.30" width="4.00" shape="512.80,-183.20 514.80,-183.20 516.80,-185.20 516.80,-187.20 515.58,-187.09 514.58,-186.76 513.80,-186.20 513.24,-185.42 512.91,-184.42"/>
    </edge>
    <edge id=":gneJ19_w2" function="walkingarea">
        <lane id=":gneJ19_w2_0" index="0" allow="pedestrian" speed="1.00" length="3.30" width="4.00" shape="516.80,-212.80 516.80,-214.80 514.80,-216.80 512.80,-216.80 512.91,-215.58 513.24,-214.58 513.80,-213.80 514.58,-213.24 515.58,-212.91"/>
    </edge>
    <edge id=":gneJ19_w3" function="walkingarea">
        <lane id=":gneJ19_w3_0" index="0" allow="pedestrian" speed="1.00" length="3.30" width="4.00" shape="487.20,-216.80 485.20,-216.80 483.20,-214.80 483.20,-212.80 484.42,-212.91 485.42,-213.24 486.20,-213.80 486.76,-214.58 487.09,-215.58"/>
    </edge>
    <edge id=":gneJ21_0" function="internal">
        <lane id=":gneJ21_0_0" index="0" disallow="pedestrian" speed="13.89" length="0.10" shape="600.00,-188.80 600.00,-188.80"/>
        <lane id=":gneJ21_0_1" index="1" disallow="pedestrian" speed="13.89" length="0.10" shape="600.00,-192.00 600.00,-192.00"/>
        <lane id=":gneJ21_0_2" index="2" disallow="pedestrian" speed="13.89" length="0.10" shape="600.00,-195.20 600.00,-195.20"/>
        <lane id=":gneJ21_0_3" index="3" disallow="pedestrian" speed="13.89" length="0.10" shape="600.00,-198.40 600.00,-198.40"/>
    </edge>
    <edge id=":gneJ21_4" function="internal">
        <lane id=":gneJ21_4_0" index="0" disallow="pedestrian" speed="13.89" length="0.10" shape="600.00,-211.20 600.00,-211.20"/>
        <lane id=":gneJ21_4_1" index="1" disallow="pedestrian" speed="13.89" length="0.10" shape="600.00,-208.00 600.00,-208.00"/>
        <lane id=":gneJ21_4_2" index="2" disallow="pedestrian" speed="13.89" length="0.10" shape="600.00,-204.80 600.00,-204.80"/>
        <lane id=":gneJ21_4_3" index="3" disallow="pedestrian" speed="13.89" length="0.10" shape="600.00,-201.60 600.00,-201.60"/>
    </edge>
    <edge id=":gneJ21_w0" function="walkingarea">
        <lane id=":gneJ21_w0_0" index="0" allow="pedestrian" speed="1.00" length="0.10" width="2.00" shape="600.00,-187.20 600.00,-185.20 600.00,-185.20 600.00,-187.20"/>
    </edge>
    <edge id=":gneJ21_w1" function="walkingarea">
        <lane id=":gneJ21_w1_0" index="0" allow="pedestrian" speed="1.00" length="0.10" width="2.00" shape="600.00,-212.80 600.00,-214.80 600.00,-214.80 600.00,-212.80"/>
    </edge>
    <edge id=":gneJ22_0" function="internal">
        <lane id=":gneJ22_0_0" index="0" disallow="pedestrian" speed="13.44" length="41.93" shape="488.80,-285.20 490.43,-296.57 495.30,-304.70 503.43,-309.57 514.80,-311.20"/>
    </edge>
    <edge id=":gneJ22_1" function="internal">
        <lane id=":gneJ22_1_0" index="0" disallow="pedestrian" speed="12.61" length="36.77" shape="492.00,-285.20 493.43,-295.17 497.70,-302.30 504.82,-306.57 514.80,-308.00"/>
    </edge>
    <edge id=":gneJ22_2" function="internal">
        <lane id=":gneJ22_2_0" index="0" disallow="pedestrian" speed="11.71" length="31.61" shape="495.20,-285.20 496.43,-293.78 500.10,-299.90 506.22,-303.58 514.80,-304.80"/>
    </edge>
    <edge id=":gneJ22_3" function="internal">
        <lane id=":gneJ22_3_0" index="0" disallow="pedestrian" speed="10.75" length="26.45" shape="498.40,-285.20 499.42,-292.38 502.50,-297.50 507.62,-300.58 514.80,-301.60"/>
    </edge>
    <edge id=":gneJ22_4" function="internal">
        <lane id=":gneJ22_4_0" index="0" disallow="pedestrian" speed="5.37" length="5.81" shape="514.80,-288.80 513.23,-288.57 512.10,-287.90 511.43,-286.77 511.20,-285.20"/>
    </edge>
    <edge id=":gneJ22_5" function="internal">
        <lane id=":gneJ22_5_0" index="0" disallow="pedestrian" speed="7.10" length="10.97" shape="514.80,-292.00 511.82,-291.57 509.70,-290.30 508.43,-288.17 508.00,-285.20"/>
    </edge>
    <edge id=":gneJ22_6" function="internal">
        <lane id=":gneJ22_6_0" index="0" disallow="pedestrian" speed="8.49" length="16.13" shape="514.80,-295.20 510.43,-294.57 507.30,-292.70 505.43,-289.57 504.80,-285.20"/>
    </edge>
    <edge id=":gneJ22_7" function="internal">
        <lane id=":gneJ22_7_0" index="0" disallow="pedestrian" speed="9.69" length="21.29" shape="514.80,-298.40 509.03,-297.57 504.90,-295.10 502.43,-290.97 501.60,-285.20"/>
    </edge>
    <edge id=":gneJ22_w0" function="walkingarea">
        <lane id=":gneJ22_w0_0" index="0" allow="pedestrian" speed="1.00" length="40.45" width="2.00" shape="514.80,-312.80 514.80,-314.80 485.20,-285.20 487.20,-285.20 487.97,-293.63 490.27,-300.53 494.10,-305.90 499.47,-309.73 506.37,-312.03"/>
    </edge>
    <edge id=":gneJ22_w1" function="walkingarea">
        <lane id=":gneJ22_w1_0" index="0" allow="pedestrian" speed="1.00" length="1.41" width="2.00" shape="512.80,-285.20 514.80,-285.20 514.80,-285.20 514.80,-287.20 514.19,-287.14 513.69,-286.98 513.30,-286.70 513.02,-286.31 512.86,-285.81"/>
    </edge>
    <edge id=":gneJ23_w0" function="walkingarea">
        <lane id=":gneJ23_w0_0" index="0" allow="pedestrian" speed="1.00" length="27.60" width="2.00" shape="400.00,-212.80 400.00,-214.80 400.00,-185.20 400.00,-187.20"/>
    </edge>
    <edge id=":gneJ25_0" function="internal">
        <lane id=":gneJ25_0_0" index="0" disallow="pedestrian" speed="6.51" length="4.75" shape="788.80,116.80 788.45,114.35 787.40,112.60 787.20,112.48"/>
    </edge>
    <edge id=":gneJ25_1" function="internal">
        <lane id=":gneJ25_1_0" index="0" disallow="pedestrian" speed="13.89" length="33.60" shape="788.80,116.80 788.80,83.20"/>
        <lane id=":gneJ25_1_1" index="1" disallow="pedestrian" speed="13.89" length="33.60" shape="792.00,116.80 792.00,83.20"/>
        <lane id=":gneJ25_1_2" index="2" disallow="pedestrian" speed="13.89" length="33.60" shape="795.20,116.80 795.20,83.20"/>
        <lane id=":gneJ25_1_3" index="3" disallow="pedestrian" speed="13.89" length="33.60" shape="798.40,116.80 798.40,83.20"/>
    </edge>
    <edge id=":gneJ25_5" function="internal">